1859
 OpenBabel04181911043D
Structure written by MMmdl.
 60 64  0  0  1  0  0  0  0  0999 V2000
  -47.4721    6.8293  -27.6057 C   0  0  0  0  0  0  0  0  0  0  0  0
  -46.1570    6.2423  -27.0580 C   0  0  0  0  0  0  0  0  0  0  0  0
  -45.7920    6.8298  -25.6847 C   0  0  0  0  0  0  0  0  0  0  0  0
  -46.1667    4.7143  -27.0067 C   0  0  0  0  0  0  0  0  0  0  0  0
  -47.2083    4.0265  -26.3731 C   0  0  0  0  0  0  0  0  0  0  0  0
  -47.1876    2.6368  -26.3009 C   0  0  0  0  0  0  0  0  0  0  0  0
  -46.1171    1.9277  -26.8479 C   0  0  0  0  0  0  0  0  0  0  0  0
  -45.0913    2.6088  -27.5045 C   0  0  0  0  0  0  0  0  0  0  0  0
  -45.1119    3.9981  -27.5775 C   0  0  0  0  0  0  0  0  0  0  0  0
  -46.0538    0.4148  -26.7335 C   0  0  0  0  0  0  0  0  0  0  0  0
  -44.8967    0.0818  -25.9724 O   0  0  0  0  0  0  0  0  0  0  0  0
  -44.5607   -1.2371  -25.7477 C   0  0  0  0  0  0  0  0  0  0  0  0
  -43.4469   -1.4895  -24.9492 C   0  0  0  0  0  0  0  0  0  0  0  0
  -43.0691   -2.8093  -24.7232 C   0  0  0  0  0  0  0  0  0  0  0  0
  -43.8120   -3.8516  -25.2814 C   0  0  0  0  0  0  0  0  0  0  0  0
  -44.9303   -3.5210  -26.0536 C   0  0  0  0  0  0  0  0  0  0  0  0
  -45.3094   -2.2381  -26.2957 C   0  0  0  0  0  0  0  0  0  0  0  0
  -43.3912   -5.2553  -25.0223 C   0  0  0  0  0  0  0  0  0  0  0  0
  -44.1181   -6.2319  -24.3390 C   0  0  0  0  0  0  0  0  0  0  0  0
  -45.4847   -6.2952  -23.8401 C   0  0  0  0  0  0  0  0  0  0  0  0
  -46.4030   -5.5073  -24.0562 O   0  0  0  0  0  0  0  0  0  0  0  0
  -45.7029   -7.3800  -23.0551 N   0  0  0  0  0  0  0  0  0  0  0  0
  -44.6774   -8.3505  -22.6202 C   0  0  0  0  0  0  0  0  0  0  0  0
  -43.6309   -8.6109  -23.7317 C   0  0  0  0  0  0  0  0  0  0  0  0
  -43.2737   -7.3202  -24.2988 N   0  0  0  0  0  0  0  0  0  0  0  0
  -42.1070   -7.0991  -24.9094 N   0  0  0  0  0  0  0  0  0  0  0  0
  -42.1504   -5.8579  -25.3427 C   0  0  0  0  0  0  0  0  0  0  0  0
  -40.9745   -5.2739  -26.0719 C   0  0  0  0  0  0  0  0  0  0  0  0
  -41.1477   -4.2963  -27.0626 C   0  0  0  0  0  0  0  0  0  0  0  0
  -40.0264   -3.7727  -27.7068 C   0  0  0  0  0  0  0  0  0  0  0  0
  -38.7618   -4.1787  -27.4346 N   0  0  0  0  0  0  0  0  0  0  0  0
  -38.5985   -5.1325  -26.4843 C   0  0  0  0  0  0  0  0  0  0  0  0
  -39.6669   -5.6976  -25.7859 C   0  0  0  0  0  0  0  0  0  0  0  0
  -47.7020    6.4289  -28.5938 H   0  0  0  0  0  0  0  0  0  0  0  0
  -48.3190    6.6087  -26.9570 H   0  0  0  0  0  0  0  0  0  0  0  0
  -47.4080    7.9141  -27.6974 H   0  0  0  0  0  0  0  0  0  0  0  0
  -45.3791    6.5495  -27.7594 H   0  0  0  0  0  0  0  0  0  0  0  0
  -44.8271    6.4565  -25.3393 H   0  0  0  0  0  0  0  0  0  0  0  0
  -45.7275    7.9161  -25.7203 H   0  0  0  0  0  0  0  0  0  0  0  0
  -46.5383    6.5680  -24.9339 H   0  0  0  0  0  0  0  0  0  0  0  0
  -48.0309    4.5637  -25.9249 H   0  0  0  0  0  0  0  0  0  0  0  0
  -48.0006    2.1169  -25.8157 H   0  0  0  0  0  0  0  0  0  0  0  0
  -44.2737    2.0595  -27.9466 H   0  0  0  0  0  0  0  0  0  0  0  0
  -44.2997    4.5169  -28.0648 H   0  0  0  0  0  0  0  0  0  0  0  0
  -46.0040   -0.0155  -27.7344 H   0  0  0  0  0  0  0  0  0  0  0  0
  -46.9529    0.0259  -26.2520 H   0  0  0  0  0  0  0  0  0  0  0  0
  -42.2033   -3.0199  -24.1153 H   0  0  0  0  0  0  0  0  0  0  0  0
  -45.5407   -4.2955  -26.4949 H   0  0  0  0  0  0  0  0  0  0  0  0
  -46.6558   -7.5436  -22.7611 H   0  0  0  0  0  0  0  0  0  0  0  0
  -45.1527   -9.2795  -22.3050 H   0  0  0  0  0  0  0  0  0  0  0  0
  -44.2134   -7.9236  -21.7293 H   0  0  0  0  0  0  0  0  0  0  0  0
  -44.0714   -9.2017  -24.5309 H   0  0  0  0  0  0  0  0  0  0  0  0
  -42.7438   -9.1224  -23.3559 H   0  0  0  0  0  0  0  0  0  0  0  0
  -42.1295   -3.9441  -27.3399 H   0  0  0  0  0  0  0  0  0  0  0  0
  -40.1385   -3.0118  -28.4636 H   0  0  0  0  0  0  0  0  0  0  0  0
  -37.5843   -5.4436  -26.2815 H   0  0  0  0  0  0  0  0  0  0  0  0
  -39.4782   -6.4501  -25.0341 H   0  0  0  0  0  0  0  0  0  0  0  0
  -46.1721   -1.9985  -26.8996 H   0  0  0  0  0  0  0  0  0  0  0  0
  -42.1057    0.4384  -23.9204 N   0  0  0  0  0  0  0  0  0  0  0  0
  -42.7145   -0.4368  -24.3874 C   0  0  0  0  0  0  0  0  0  0  0  0
  1  2  1  0  0  0  0
  1 34  1  0  0  0  0
  1 35  1  0  0  0  0
  1 36  1  0  0  0  0
  2  3  1  0  0  0  0
  2  4  1  0  0  0  0
  2 37  1  0  0  0  0
  3 38  1  0  0  0  0
  3 39  1  0  0  0  0
  3 40  1  0  0  0  0
  4  5  1  0  0  0  0
  4  9  2  0  0  0  0
  5  6  2  0  0  0  0
  5 41  1  0  0  0  0
  6  7  1  0  0  0  0
  6 42  1  0  0  0  0
  7  8  2  0  0  0  0
  7 10  1  0  0  0  0
  8  9  1  0  0  0  0
  8 43  1  0  0  0  0
  9 44  1  0  0  0  0
 10 11  1  0  0  0  0
 10 45  1  0  0  0  0
 10 46  1  0  0  0  0
 11 12  1  0  0  0  0
 12 13  1  0  0  0  0
 12 17  2  0  0  0  0
 13 14  2  0  0  0  0
 13 60  1  0  0  0  0
 14 15  1  0  0  0  0
 14 47  1  0  0  0  0
 15 16  2  0  0  0  0
 15 18  1  0  0  0  0
 16 17  1  0  0  0  0
 16 48  1  0  0  0  0
 17 58  1  0  0  0  0
 18 19  2  0  0  0  0
 18 27  1  0  0  0  0
 19 20  1  0  0  0  0
 19 25  1  0  0  0  0
 20 21  2  0  0  0  0
 20 22  1  0  0  0  0
 22 23  1  0  0  0  0
 22 49  1  0  0  0  0
 23 24  1  0  0  0  0
 23 50  1  0  0  0  0
 23 51  1  0  0  0  0
 24 25  1  0  0  0  0
 24 52  1  0  0  0  0
 24 53  1  0  0  0  0
 25 26  1  0  0  0  0
 26 27  2  0  0  0  0
 27 28  1  0  0  0  0
 28 29  1  0  0  0  0
 28 33  2  0  0  0  0
 29 30  2  0  0  0  0
 29 54  1  0  0  0  0
 30 31  1  0  0  0  0
 30 55  1  0  0  0  0
 31 32  2  0  0  0  0
 32 33  1  0  0  0  0
 32 56  1  0  0  0  0
 33 57  1  0  0  0  0
 59 60  3  0  0  0  0
M  END
>  <entry id>
18

>  <entry name>
54341859

>  <Source Path>
/home/jscheen/projects/ML/sourced_datasets/TestSets/AC_FEP_SI_datasets/ROS1

>  <Source File>
ROS1_inputs_v2.mae

>  <Source File Index>
18

>  <[V] ROS1 pIC50 IRStide substrate (300.236)>
6.36

>  <Pair>
6

>  <chiral flag>
0

>  <version>
0

>  <dpIC50>
1.28

>  <mmshare version>
42013

>  <flags>
0

>  <Force Field>
OPLS3e

>  <Energy>
57.6357813019215

>  <Chiralities Consistent>
1

>  <Variant>
54341859-1

>  <job name>
ligprep_1

>  <Molecular Weight>
463.54375

>  <ALogP>
4.4194

>  <Polar Surface Area>
92.83

>  <Rotatable Bonds>
6

>  <Hbond Donors>
1

>  <Hbond Acceptors>
5

>  <SMILES>
CC(C)c1ccc(cc1)COc(c2C#N)ccc(c2)-c3c(-c4ccncc4)nn(c35)CCNC5=O

>  <pred dG>
-8.67

>  <pred dG error>
0.29

>  <subgroup title>
FEP_inputs

>  <subgroupid>
FEP_inputs

>  <subgroup collapsed>
0

$$$$
