7454
 OpenBabel04181911043D
Structure written by MMmdl.
 51 55  0  0  1  0  0  0  0  0999 V2000
  -46.1667    4.7143  -27.0067 C   0  0  0  0  0  0  0  0  0  0  0  0
  -47.2083    4.0265  -26.3731 C   0  0  0  0  0  0  0  0  0  0  0  0
  -47.1876    2.6368  -26.3009 C   0  0  0  0  0  0  0  0  0  0  0  0
  -46.1171    1.9277  -26.8479 C   0  0  0  0  0  0  0  0  0  0  0  0
  -45.0913    2.6088  -27.5045 C   0  0  0  0  0  0  0  0  0  0  0  0
  -45.1119    3.9981  -27.5775 C   0  0  0  0  0  0  0  0  0  0  0  0
  -46.0538    0.4148  -26.7335 C   0  0  0  0  0  0  0  0  0  0  0  0
  -44.8967    0.0818  -25.9724 O   0  0  0  0  0  0  0  0  0  0  0  0
  -44.5607   -1.2371  -25.7477 C   0  0  0  0  0  0  0  0  0  0  0  0
  -43.4469   -1.4895  -24.9492 C   0  0  0  0  0  0  0  0  0  0  0  0
  -43.0691   -2.8093  -24.7232 C   0  0  0  0  0  0  0  0  0  0  0  0
  -43.8120   -3.8516  -25.2814 C   0  0  0  0  0  0  0  0  0  0  0  0
  -44.9303   -3.5210  -26.0536 C   0  0  0  0  0  0  0  0  0  0  0  0
  -45.3094   -2.2381  -26.2957 C   0  0  0  0  0  0  0  0  0  0  0  0
  -43.3912   -5.2553  -25.0223 C   0  0  0  0  0  0  0  0  0  0  0  0
  -44.1181   -6.2319  -24.3390 C   0  0  0  0  0  0  0  0  0  0  0  0
  -45.4847   -6.2952  -23.8401 C   0  0  0  0  0  0  0  0  0  0  0  0
  -46.4030   -5.5073  -24.0562 O   0  0  0  0  0  0  0  0  0  0  0  0
  -45.7029   -7.3800  -23.0551 N   0  0  0  0  0  0  0  0  0  0  0  0
  -44.6774   -8.3505  -22.6202 C   0  0  0  0  0  0  0  0  0  0  0  0
  -43.6309   -8.6109  -23.7317 C   0  0  0  0  0  0  0  0  0  0  0  0
  -43.2737   -7.3202  -24.2988 N   0  0  0  0  0  0  0  0  0  0  0  0
  -42.1070   -7.0991  -24.9094 N   0  0  0  0  0  0  0  0  0  0  0  0
  -42.1504   -5.8579  -25.3427 C   0  0  0  0  0  0  0  0  0  0  0  0
  -40.9745   -5.2739  -26.0719 C   0  0  0  0  0  0  0  0  0  0  0  0
  -41.1477   -4.2963  -27.0626 C   0  0  0  0  0  0  0  0  0  0  0  0
  -40.0264   -3.7727  -27.7068 C   0  0  0  0  0  0  0  0  0  0  0  0
  -38.7618   -4.1787  -27.4346 N   0  0  0  0  0  0  0  0  0  0  0  0
  -38.5985   -5.1325  -26.4843 C   0  0  0  0  0  0  0  0  0  0  0  0
  -39.6669   -5.6976  -25.7859 C   0  0  0  0  0  0  0  0  0  0  0  0
  -48.0006    2.1169  -25.8157 H   0  0  0  0  0  0  0  0  0  0  0  0
  -44.2737    2.0595  -27.9466 H   0  0  0  0  0  0  0  0  0  0  0  0
  -44.2997    4.5169  -28.0648 H   0  0  0  0  0  0  0  0  0  0  0  0
  -46.0040   -0.0155  -27.7344 H   0  0  0  0  0  0  0  0  0  0  0  0
  -46.9529    0.0259  -26.2520 H   0  0  0  0  0  0  0  0  0  0  0  0
  -42.8825   -0.6783  -24.5163 H   0  0  0  0  0  0  0  0  0  0  0  0
  -42.2033   -3.0199  -24.1153 H   0  0  0  0  0  0  0  0  0  0  0  0
  -45.5407   -4.2955  -26.4949 H   0  0  0  0  0  0  0  0  0  0  0  0
  -46.6558   -7.5436  -22.7611 H   0  0  0  0  0  0  0  0  0  0  0  0
  -45.1527   -9.2795  -22.3050 H   0  0  0  0  0  0  0  0  0  0  0  0
  -44.2134   -7.9236  -21.7293 H   0  0  0  0  0  0  0  0  0  0  0  0
  -44.0714   -9.2017  -24.5309 H   0  0  0  0  0  0  0  0  0  0  0  0
  -42.7438   -9.1224  -23.3559 H   0  0  0  0  0  0  0  0  0  0  0  0
  -42.1295   -3.9441  -27.3399 H   0  0  0  0  0  0  0  0  0  0  0  0
  -40.1385   -3.0118  -28.4636 H   0  0  0  0  0  0  0  0  0  0  0  0
  -37.5843   -5.4436  -26.2815 H   0  0  0  0  0  0  0  0  0  0  0  0
  -39.4782   -6.4501  -25.0341 H   0  0  0  0  0  0  0  0  0  0  0  0
  -46.1721   -1.9985  -26.8996 H   0  0  0  0  0  0  0  0  0  0  0  0
  -49.1614    5.3020  -25.3090 N   0  0  0  0  0  0  0  0  0  0  0  0
  -48.2747    4.7229  -25.7921 C   0  0  0  0  0  0  0  0  0  0  0  0
  -46.1812    5.7933  -27.0523 H   0  0  0  0  0  0  0  0  0  0  0  0
  1  2  1  0  0  0  0
  1  6  2  0  0  0  0
  1 51  1  0  0  0  0
  2  3  2  0  0  0  0
  2 50  1  0  0  0  0
  3  4  1  0  0  0  0
  3 31  1  0  0  0  0
  4  5  2  0  0  0  0
  4  7  1  0  0  0  0
  5  6  1  0  0  0  0
  5 32  1  0  0  0  0
  6 33  1  0  0  0  0
  7  8  1  0  0  0  0
  7 34  1  0  0  0  0
  7 35  1  0  0  0  0
  8  9  1  0  0  0  0
  9 10  1  0  0  0  0
  9 14  2  0  0  0  0
 10 11  2  0  0  0  0
 10 36  1  0  0  0  0
 11 12  1  0  0  0  0
 11 37  1  0  0  0  0
 12 13  2  0  0  0  0
 12 15  1  0  0  0  0
 13 14  1  0  0  0  0
 13 38  1  0  0  0  0
 14 48  1  0  0  0  0
 15 16  2  0  0  0  0
 15 24  1  0  0  0  0
 16 17  1  0  0  0  0
 16 22  1  0  0  0  0
 17 18  2  0  0  0  0
 17 19  1  0  0  0  0
 19 20  1  0  0  0  0
 19 39  1  0  0  0  0
 20 21  1  0  0  0  0
 20 40  1  0  0  0  0
 20 41  1  0  0  0  0
 21 22  1  0  0  0  0
 21 42  1  0  0  0  0
 21 43  1  0  0  0  0
 22 23  1  0  0  0  0
 23 24  2  0  0  0  0
 24 25  1  0  0  0  0
 25 26  1  0  0  0  0
 25 30  2  0  0  0  0
 26 27  2  0  0  0  0
 26 44  1  0  0  0  0
 27 28  1  0  0  0  0
 27 45  1  0  0  0  0
 28 29  2  0  0  0  0
 29 30  1  0  0  0  0
 29 46  1  0  0  0  0
 30 47  1  0  0  0  0
 49 50  3  0  0  0  0
M  END
>  <entry id>
32

>  <entry name>
54287454

>  <Source Path>
/home/jscheen/projects/ML/sourced_datasets/TestSets/AC_FEP_SI_datasets/ROS1

>  <Source File>
ROS1_inputs_v2.mae

>  <Source File Index>
32

>  <[V] ROS1 pIC50 IRStide substrate (300.236)>
5.73

>  <Pair>
21

>  <chiral flag>
0

>  <version>
0

>  <dpIC50>
1.2

>  <mmshare version>
42013

>  <flags>
0

>  <Force Field>
OPLS3e

>  <Energy>
54.138359802347

>  <Chiralities Consistent>
1

>  <Variant>
54287454-1

>  <job name>
ligprep_1

>  <Molecular Weight>
421.46248

>  <ALogP>
3.2252

>  <Polar Surface Area>
92.83

>  <Rotatable Bonds>
5

>  <Hbond Donors>
1

>  <Hbond Acceptors>
5

>  <SMILES>
N#Cc1cc(ccc1)COc(cc2)ccc2-c3c(-c4ccncc4)nn(c35)CCNC5=O

>  <pred dG>
-7.68

>  <pred dG error>
0.29

>  <subgroup title>
FEP_inputs

>  <subgroupid>
FEP_inputs

>  <subgroup collapsed>
0

$$$$
